Results/New_campus/from_terminal_6/network_debug.txt
Pandapower Network Debug Info
==================================================

BUS:
          name  vn_kv type  zone  in_service   geo
0        Bus 8    0.4    b  None        True  None
1        Bus 9    0.4    b  None        True  None
2       Bus 10    0.4    b  None        True  None
3       Bus 11    0.4    b  None        True  None
4       Bus 21   15.0    b  None        True  None
5       Bus 22   15.0    b  None        True  None
6       Bus 23   15.0    b  None        True  None
7     Sub MV 2   15.0    b  None        True  None
8     Sub LV 2    0.4    b  None        True  None
9   Slack HV 0   70.0    b  None        True  None
10  Slack MV 0   15.0    b  None        True  None
--------------------------------------------------

LOAD:
              name  bus      p_mw        q_mvar  const_z_percent  const_i_percent  sn_mva  scaling  in_service type
0        Load 8 T1    0  0.002413 -5.428005e-05              0.0              0.0     NaN      1.0        True  wye
1        Load 8 T2    0  0.002413 -5.428005e-05              0.0              0.0     NaN      1.0        True  wye
2        Load 8 T3    0  0.002413 -5.428005e-05              0.0              0.0     NaN      1.0        True  wye
3        Load 8 T4    0  0.002413 -5.428005e-05              0.0              0.0     NaN      1.0        True  wye
4        Load 8 T5    0  0.002413 -5.428005e-05              0.0              0.0     NaN      1.0        True  wye
5        Load 8 T6    0  0.003620 -1.468779e-04              0.0              0.0     NaN      1.0        True  wye
6        Load 8 T7    0  0.003620 -1.468779e-04              0.0              0.0     NaN      1.0        True  wye
7        Load 8 T8    0  0.003620 -7.475842e-05              0.0              0.0     NaN      1.0        True  wye
8        Load 8 T9    0  0.000068 -3.520682e-05              0.0              0.0     NaN      1.0        True  wye
9       Load 8 T10    0 -0.004324 -3.167856e-04              0.0              0.0     NaN      1.0        True  wye
10      Load 8 T11    0 -0.006590 -7.229938e-04              0.0              0.0     NaN      1.0        True  wye
11      Load 8 T12    0 -0.006337 -7.913280e-04              0.0              0.0     NaN      1.0        True  wye
12      Load 8 T13    0 -0.008314 -9.459677e-04              0.0              0.0     NaN      1.0        True  wye
13      Load 8 T14    0 -0.006564 -4.878273e-04              0.0              0.0     NaN      1.0        True  wye
14      Load 8 T15    0 -0.002485 -1.938607e-04              0.0              0.0     NaN      1.0        True  wye
15      Load 8 T16    0 -0.000219 -7.476141e-06              0.0              0.0     NaN      1.0        True  wye
16      Load 8 T17    0  0.004827 -1.369523e-04              0.0              0.0     NaN      1.0        True  wye
17      Load 8 T18    0  0.006034 -2.304350e-04              0.0              0.0     NaN      1.0        True  wye
18      Load 8 T19    0  0.006034 -1.597353e-04              0.0              0.0     NaN      1.0        True  wye
19      Load 8 T20    0  0.004827 -1.369523e-04              0.0              0.0     NaN      1.0        True  wye
20      Load 8 T21    0  0.004827 -2.034932e-04              0.0              0.0     NaN      1.0        True  wye
21      Load 8 T22    0  0.003620 -1.141694e-04              0.0              0.0     NaN      1.0        True  wye
22      Load 8 T23    0  0.002413 -5.428005e-05              0.0              0.0     NaN      1.0        True  wye
23      Load 8 T24    0  0.002413 -5.428005e-05              0.0              0.0     NaN      1.0        True  wye
24      Load 8 T25    0  0.002413 -5.428005e-05              0.0              0.0     NaN      1.0        True  wye
25      Load 8 T26    0  0.002413 -5.428005e-05              0.0              0.0     NaN      1.0        True  wye
26      Load 8 T27    0  0.002413 -5.428005e-05              0.0              0.0     NaN      1.0        True  wye
27      Load 8 T28    0  0.002413 -5.428005e-05              0.0              0.0     NaN      1.0        True  wye
28      Load 8 T29    0  0.003620 -1.141694e-04              0.0              0.0     NaN      1.0        True  wye
29      Load 8 T30    0  0.004827 -2.034932e-04              0.0              0.0     NaN      1.0        True  wye
30      Load 8 T31    0  0.004492 -1.727940e-04              0.0              0.0     NaN      1.0        True  wye
31      Load 8 T32    0  0.002579 -2.983832e-05              0.0              0.0     NaN      1.0        True  wye
32      Load 8 T33    0 -0.005455 -4.077599e-04              0.0              0.0     NaN      1.0        True  wye
33      Load 8 T34    0 -0.008718 -9.813752e-04              0.0              0.0     NaN      1.0        True  wye
34      Load 8 T35    0 -0.010796 -1.482474e-03              0.0              0.0     NaN      1.0        True  wye
35      Load 8 T36    0 -0.011312 -1.681295e-03              0.0              0.0     NaN      1.0        True  wye
36      Load 8 T37    0 -0.012539 -1.552355e-02              0.0              0.0     NaN      1.0        True  wye
37      Load 8 T38    0 -0.011098 -1.560357e-03              0.0              0.0     NaN      1.0        True  wye
38      Load 8 T39    0 -0.006776 -1.736675e-02              0.0              0.0     NaN      1.0        True  wye
39      Load 8 T40    0 -0.004556 -2.870214e-04              0.0              0.0     NaN      1.0        True  wye
40      Load 8 T41    0  0.001708 -1.792043e-05              0.0              0.0     NaN      1.0        True  wye
41      Load 8 T42    0  0.003620 -1.141694e-04              0.0              0.0     NaN      1.0        True  wye
42      Load 8 T43    0  0.004827 -2.034932e-04              0.0              0.0     NaN      1.0        True  wye
43      Load 8 T44    0  0.004827 -2.034932e-04              0.0              0.0     NaN      1.0        True  wye
44      Load 8 T45    0  0.006034 -3.193754e-04              0.0              0.0     NaN      1.0        True  wye
45      Load 8 T46    0  0.003620 -1.141694e-04              0.0              0.0     NaN      1.0        True  wye
46      Load 8 T47    0  0.002413 -5.428005e-05              0.0              0.0     NaN      1.0        True  wye
47      Load 8 T48    0  0.002413 -5.428005e-05              0.0              0.0     NaN      1.0        True  wye
48      Load 8 T49    0  0.001207 -1.581689e-05              0.0              0.0     NaN      1.0        True  wye
49      Load 8 T50    0  0.001207 -1.581689e-05              0.0              0.0     NaN      1.0        True  wye
50      Load 8 T51    0  0.001207 -1.581689e-05              0.0              0.0     NaN      1.0        True  wye
51      Load 8 T52    0  0.001207 -1.581689e-05              0.0              0.0     NaN      1.0        True  wye
52      Load 8 T53    0  0.000997 -1.058883e-05              0.0              0.0     NaN      1.0        True  wye
53      Load 8 T54    0  0.000759 -3.629401e-06              0.0              0.0     NaN      1.0        True  wye
54      Load 8 T55    0 -0.002894 -1.448891e-04              0.0              0.0     NaN      1.0        True  wye
55      Load 8 T56    0 -0.003595 -1.571565e-02              0.0              0.0     NaN      1.0        True  wye
56      Load 8 T57    0 -0.011639 -1.708305e-03              0.0              0.0     NaN      1.0        True  wye
57      Load 8 T58    0 -0.014206 -2.521383e-03              0.0              0.0     NaN      1.0        True  wye
58      Load 8 T59    0 -0.015745 -3.608705e-03              0.0              0.0     NaN      1.0        True  wye
59      Load 8 T60    0 -0.011924 -1.849467e-03              0.0              0.0     NaN      1.0        True  wye
60      Load 8 T61    0 -0.016505 -2.552445e-03              0.0              0.0     NaN      1.0        True  wye
61      Load 8 T62    0 -0.014469 -2.611851e-03              0.0              0.0     NaN      1.0        True  wye
62      Load 8 T63    0 -0.008291 -9.415422e-04              0.0              0.0     NaN      1.0        True  wye
63      Load 8 T64    0 -0.007943 -8.278914e-04              0.0              0.0     NaN      1.0        True  wye
64      Load 8 T65    0 -0.004357 -2.630033e-04              0.0              0.0     NaN      1.0        True  wye
65      Load 8 T66    0 -0.001158 -2.720463e-05              0.0              0.0     NaN      1.0        True  wye
66      Load 8 T67    0  0.002413 -5.428005e-05              0.0              0.0     NaN      1.0        True  wye
67      Load 8 T68    0  0.002413 -5.428005e-05              0.0              0.0     NaN      1.0        True  wye
68      Load 8 T69    0  0.004827 -2.034932e-04              0.0              0.0     NaN      1.0        True  wye
69      Load 8 T70    0  0.002413 -5.428005e-05              0.0              0.0     NaN      1.0        True  wye
70      Load 8 T71    0  0.001207 -1.581689e-05              0.0              0.0     NaN      1.0        True  wye
71      Load 8 T72    0  0.001207 -1.581689e-05              0.0              0.0     NaN      1.0        True  wye
72      Load 8 T73    0  0.001207 -2.287592e-05              0.0              0.0     NaN      1.0        True  wye
73      Load 8 T74    0  0.001207 -2.276562e-05              0.0              0.0     NaN      1.0        True  wye
74      Load 8 T75    0  0.001207 -2.265533e-05              0.0              0.0     NaN      1.0        True  wye
75      Load 8 T76    0  0.001207 -2.243473e-05              0.0              0.0     NaN      1.0        True  wye
76      Load 8 T77    0  0.000150 -4.159630e-06              0.0              0.0     NaN      1.0        True  wye
77      Load 8 T78    0 -0.003051 -9.381779e-05              0.0              0.0     NaN      1.0        True  wye
78      Load 8 T79    0 -0.007628 -6.561670e-04              0.0              0.0     NaN      1.0        True  wye
79      Load 8 T80    0 -0.010664 -1.566255e-03              0.0              0.0     NaN      1.0        True  wye
80      Load 8 T81    0 -0.013180 -2.535544e-03              0.0              0.0     NaN      1.0        True  wye
81      Load 8 T82    0 -0.016882 -2.625475e-03              0.0              0.0     NaN      1.0        True  wye
82      Load 8 T83    0 -0.016127 -2.267196e-03              0.0              0.0     NaN      1.0        True  wye
83      Load 8 T84    0 -0.017151 -2.075675e-03              0.0              0.0     NaN      1.0        True  wye
84      Load 8 T85    0 -0.019640 -3.197981e-03              0.0              0.0     NaN      1.0        True  wye
85      Load 8 T86    0 -0.016204 -2.912639e-03              0.0              0.0     NaN      1.0        True  wye
86      Load 8 T87    0 -0.012485 -2.187041e-03              0.0              0.0     NaN      1.0        True  wye
87      Load 8 T88    0 -0.009941 -1.217703e-03              0.0              0.0     NaN      1.0        True  wye
88      Load 8 T89    0 -0.005426 -5.100247e-04              0.0              0.0     NaN      1.0        True  wye
89      Load 8 T90    0  0.000065 -2.420603e-05              0.0              0.0     NaN      1.0        True  wye
90      Load 8 T91    0  0.002831 -1.473940e-05              0.0              0.0     NaN      1.0        True  wye
91      Load 8 T92    0  0.002413 -2.932810e-05              0.0              0.0     NaN      1.0        True  wye
92      Load 8 T93    0  0.002413 -6.076644e-05              0.0              0.0     NaN      1.0        True  wye
93      Load 8 T94    0  0.002413 -6.104052e-05              0.0              0.0     NaN      1.0        True  wye
94      Load 8 T95    0  0.001207 -2.326196e-05              0.0              0.0     NaN      1.0        True  wye
95      Load 8 T96    0  0.001207 -2.260018e-05              0.0              0.0     NaN      1.0        True  wye
96      Load 8 T97    0  0.001207 -3.119550e-05              0.0              0.0     NaN      1.0        True  wye
97      Load 8 T98    0  0.001207 -3.119550e-05              0.0              0.0     NaN      1.0        True  wye
98      Load 8 T99    0  0.001207 -3.119550e-05              0.0              0.0     NaN      1.0        True  wye
99     Load 8 T100    0  0.001207 -3.119550e-05              0.0              0.0     NaN      1.0        True  wye
100    Load 8 T101    0  0.000961 -2.403933e-05              0.0              0.0     NaN      1.0        True  wye
101    Load 8 T102    0 -0.002220 -3.351213e-05              0.0              0.0     NaN      1.0        True  wye
102    Load 8 T103    0 -0.006522 -4.049543e-04              0.0              0.0     NaN      1.0        True  wye
103    Load 8 T104    0 -0.009857 -1.184405e-03              0.0              0.0     NaN      1.0        True  wye
104    Load 8 T105    0 -0.012590 -2.108016e-03              0.0              0.0     NaN      1.0        True  wye
105    Load 8 T106    0 -0.017067 -3.340884e-03              0.0              0.0     NaN      1.0        True  wye
106    Load 8 T107    0 -0.017440 -1.933448e-03              0.0              0.0     NaN      1.0        True  wye
107    Load 8 T108    0 -0.016233 -8.199044e-04              0.0              0.0     NaN      1.0        True  wye
108    Load 8 T109    0 -0.017440 -1.662188e-03              0.0              0.0     NaN      1.0        True  wye
109    Load 8 T110    0 -0.015944 -2.899323e-03              0.0              0.0     NaN      1.0        True  wye
110    Load 8 T111    0 -0.010127 -2.307720e-03              0.0              0.0     NaN      1.0        True  wye
111    Load 8 T112    0 -0.008735 -1.366181e-03              0.0              0.0     NaN      1.0        True  wye
112    Load 8 T113    0 -0.003064 -3.977170e-04              0.0              0.0     NaN      1.0        True  wye
113    Load 8 T114    0  0.002209 -2.484309e-05              0.0              0.0     NaN      1.0        True  wye
114    Load 8 T115    0  0.004460 -7.903463e-05              0.0              0.0     NaN      1.0        True  wye
115    Load 8 T116    0  0.003620 -7.617943e-05              0.0              0.0     NaN      1.0        True  wye
116    Load 8 T117    0  0.003620 -1.386532e-04              0.0              0.0     NaN      1.0        True  wye
117    Load 8 T118    0  0.002413 -1.010729e-04              0.0              0.0     NaN      1.0        True  wye
118    Load 8 T119    0  0.001207 -3.119550e-05              0.0              0.0     NaN      1.0        True  wye
119    Load 8 T120    0  0.001207 -3.119550e-05              0.0              0.0     NaN      1.0        True  wye
120    Load 8 T121    0  0.001207 -1.581689e-05              0.0              0.0     NaN      1.0        True  wye
121    Load 8 T122    0  0.001207 -1.581689e-05              0.0              0.0     NaN      1.0        True  wye
122    Load 8 T123    0  0.001207 -1.581689e-05              0.0              0.0     NaN      1.0        True  wye
123    Load 8 T124    0  0.001207 -1.581689e-05              0.0              0.0     NaN      1.0        True  wye
124    Load 8 T125    0  0.001207 -1.581689e-05              0.0              0.0     NaN      1.0        True  wye
125    Load 8 T126    0  0.002078 -3.694493e-05              0.0              0.0     NaN      1.0        True  wye
126    Load 8 T127    0  0.001352 -1.423934e-05              0.0              0.0     NaN      1.0        True  wye
127    Load 8 T128    0  0.004378 -1.831087e-02              0.0              0.0     NaN      1.0        True  wye
128    Load 8 T129    0 -0.002020 -6.752248e-05              0.0              0.0     NaN      1.0        True  wye
129    Load 8 T130    0 -0.003328 -1.639373e-04              0.0              0.0     NaN      1.0        True  wye
130    Load 8 T131    0 -0.005933 -4.718758e-04              0.0              0.0     NaN      1.0        True  wye
131    Load 8 T132    0 -0.003903 -2.351771e-04              0.0              0.0     NaN      1.0        True  wye
132    Load 8 T133    0 -0.006088 -4.926008e-04              0.0              0.0     NaN      1.0        True  wye
133    Load 8 T134    0 -0.006747 -6.018256e-04              0.0              0.0     NaN      1.0        True  wye
134    Load 8 T135    0 -0.005972 -5.073970e-04              0.0              0.0     NaN      1.0        True  wye
135    Load 8 T136    0 -0.000747 -2.921736e-05              0.0              0.0     NaN      1.0        True  wye
136    Load 8 T137    0  0.001830 -2.094720e-05              0.0              0.0     NaN      1.0        True  wye
137    Load 8 T138    0  0.001930 -2.967063e-05              0.0              0.0     NaN      1.0        True  wye
138    Load 8 T139    0  0.003620 -1.141694e-04              0.0              0.0     NaN      1.0        True  wye
139    Load 8 T140    0  0.003620 -1.141694e-04              0.0              0.0     NaN      1.0        True  wye
140    Load 8 T141    0  0.006034 -3.193754e-04              0.0              0.0     NaN      1.0        True  wye
141    Load 8 T142    0  0.003620 -1.141694e-04              0.0              0.0     NaN      1.0        True  wye
142    Load 8 T143    0  0.001207 -1.581689e-05              0.0              0.0     NaN      1.0        True  wye
143    Load 8 T144    0  0.001207 -1.581689e-05              0.0              0.0     NaN      1.0        True  wye
144    Load 8 T145    0  0.001207 -1.581689e-05              0.0              0.0     NaN      1.0        True  wye
145    Load 8 T146    0  0.001207 -1.581689e-05              0.0              0.0     NaN      1.0        True  wye
146    Load 8 T147    0  0.001207 -1.581689e-05              0.0              0.0     NaN      1.0        True  wye
147    Load 8 T148    0  0.001207 -1.581689e-05              0.0              0.0     NaN      1.0        True  wye
148    Load 8 T149    0  0.001207 -1.581689e-05              0.0              0.0     NaN      1.0        True  wye
149    Load 8 T150    0  0.002413 -5.428005e-05              0.0              0.0     NaN      1.0        True  wye
150    Load 8 T151    0  0.002163 -4.135474e-05              0.0              0.0     NaN      1.0        True  wye
151    Load 8 T152    0  0.004400 -1.440156e-04              0.0              0.0     NaN      1.0        True  wye
152    Load 8 T153    0 -0.001263 -3.072865e-05              0.0              0.0     NaN      1.0        True  wye
153    Load 8 T154    0 -0.001882 -6.046326e-05              0.0              0.0     NaN      1.0        True  wye
154    Load 8 T155    0 -0.002970 -1.319032e-04              0.0              0.0     NaN      1.0        True  wye
155    Load 8 T156    0 -0.003017 -1.559694e-04              0.0              0.0     NaN      1.0        True  wye
156    Load 8 T157    0 -0.003730 -1.998112e-04              0.0              0.0     NaN      1.0        True  wye
157    Load 8 T158    0 -0.002611 -1.007793e-04              0.0              0.0     NaN      1.0        True  wye
158    Load 8 T159    0  0.000746 -3.475802e-06              0.0              0.0     NaN      1.0        True  wye
159    Load 8 T160    0  0.000356 -1.487699e-06              0.0              0.0     NaN      1.0        True  wye
160    Load 8 T161    0  0.001207 -1.581689e-05              0.0              0.0     NaN      1.0        True  wye
161    Load 8 T162    0  0.001207 -1.581689e-05              0.0              0.0     NaN      1.0        True  wye
162    Load 8 T163    0  0.002413 -5.428005e-05              0.0              0.0     NaN      1.0        True  wye
163    Load 8 T164    0  0.002413 -5.428005e-05              0.0              0.0     NaN      1.0        True  wye
164    Load 8 T165    0  0.004827 -2.034932e-04              0.0              0.0     NaN      1.0        True  wye
165    Load 8 T166    0  0.002413 -5.428005e-05              0.0              0.0     NaN      1.0        True  wye
166    Load 8 T167    0  0.001207 -1.581689e-05              0.0              0.0     NaN      1.0        True  wye
167    Load 8 T168    0  0.001207 -1.581689e-05              0.0              0.0     NaN      1.0        True  wye
168    Load 8 T169    0  0.001207 -1.581689e-05              0.0              0.0     NaN      1.0        True  wye
169    Load 8 T170    0  0.001207 -1.581689e-05              0.0              0.0     NaN      1.0        True  wye
170    Load 8 T171    0  0.001207 -1.581689e-05              0.0              0.0     NaN      1.0        True  wye
171    Load 8 T172    0  0.001207 -1.581689e-05              0.0              0.0     NaN      1.0        True  wye
172    Load 8 T173    0  0.001207 -1.581689e-05              0.0              0.0     NaN      1.0        True  wye
173    Load 8 T174    0  0.001207 -2.598966e-05              0.0              0.0     NaN      1.0        True  wye
174    Load 8 T175    0  0.001207 -2.598966e-05              0.0              0.0     NaN      1.0        True  wye
175    Load 8 T176    0  0.001993 -2.135547e-05              0.0              0.0     NaN      1.0        True  wye
176    Load 8 T177    0 -0.000007 -2.985691e-05              0.0              0.0     NaN      1.0        True  wye
177    Load 8 T178    0 -0.003802 -2.260935e-04              0.0              0.0     NaN      1.0        True  wye
178    Load 8 T179    0 -0.005758 -5.315202e-04              0.0              0.0     NaN      1.0        True  wye
179    Load 8 T180    0 -0.004168 -3.954782e-04              0.0              0.0     NaN      1.0        True  wye
180    Load 8 T181    0 -0.006061 -4.890150e-04              0.0              0.0     NaN      1.0        True  wye
181    Load 8 T182    0 -0.004639 -2.154312e-04              0.0              0.0     NaN      1.0        True  wye
182    Load 8 T183    0 -0.000392 -3.480299e-05              0.0              0.0     NaN      1.0        True  wye
183    Load 8 T184    0  0.000961 -9.702197e-06              0.0              0.0     NaN      1.0        True  wye
184    Load 8 T185    0  0.002413 -2.297993e-05              0.0              0.0     NaN      1.0        True  wye
185    Load 8 T186    0  0.003620 -6.746822e-05              0.0              0.0     NaN      1.0        True  wye
186    Load 8 T187    0  0.003620 -3.243648e-05              0.0              0.0     NaN      1.0        True  wye
187    Load 8 T188    0  0.002413 -2.297993e-05              0.0              0.0     NaN      1.0        True  wye
188    Load 8 T189    0  0.002413 -5.428005e-05              0.0              0.0     NaN      1.0        True  wye
189    Load 8 T190    0  0.002413 -5.428005e-05              0.0              0.0     NaN      1.0        True  wye
190    Load 8 T191    0  0.001207 -1.581689e-05              0.0              0.0     NaN      1.0        True  wye
191    Load 8 T192    0  0.001207 -1.581689e-05              0.0              0.0     NaN      1.0        True  wye
192      Load 9 T1    1  0.002413 -5.468000e-06              0.0              0.0     NaN      1.0        True  wye
193      Load 9 T2    1  0.002413 -5.468000e-06              0.0              0.0     NaN      1.0        True  wye
194      Load 9 T3    1  0.002413 -5.468000e-06              0.0              0.0     NaN      1.0        True  wye
195      Load 9 T4    1  0.002413 -5.468000e-06              0.0              0.0     NaN      1.0        True  wye
196      Load 9 T5    1  0.002413 -5.468000e-06              0.0              0.0     NaN      1.0        True  wye
197      Load 9 T6    1  0.004827 -1.034703e-05              0.0              0.0     NaN      1.0        True  wye
198      Load 9 T7    1  0.004827 -1.034703e-05              0.0              0.0     NaN      1.0        True  wye
199      Load 9 T8    1  0.002053 -7.099757e-06              0.0              0.0     NaN      1.0        True  wye
...

EXT_GRID:
        name  bus  vm_pu  va_degree  slack_weight  in_service
0  ExtGrid 0    9    1.0        0.0           1.0        True
--------------------------------------------------

LINE:
      name std_type  from_bus  to_bus  length_km  r_ohm_per_km  x_ohm_per_km  c_nf_per_km  g_us_per_km  max_i_ka   df  parallel  type  in_service   geo
0   Line 0     None        10       7   0.100000        0.2747         0.402          0.0          0.0      0.34  1.0         1  None        True  None
1   Line 2     None         7       4   0.141421        0.2747         0.402          0.0          0.0      0.34  1.0         1  None        True  None
2   Line 8     None         8       0   0.150000        0.2747         0.402          0.0          0.0      0.34  1.0         1  None        True  None
3  Line 16     None         5       4   0.141421        0.2747         0.402          0.0          0.0      0.34  1.0         1  None        True  None
4  Line 18     None         6       5   0.200000        0.5502         0.429          0.0          0.0      0.23  1.0         1  None        True  None
5  Line 19     None         1       0   0.172047        0.2747         0.402          0.0          0.0      0.34  1.0         1  None        True  None
6  Line 21     None         3       0   0.194165        0.5502         0.429          0.0          0.0      0.23  1.0         1  None        True  None
7  Line 22     None         2       1   0.263059        0.5502         0.429          0.0          0.0      0.23  1.0         1  None        True  None
--------------------------------------------------

TRAFO:
                  name std_type  hv_bus  lv_bus  sn_mva  vn_hv_kv  vn_lv_kv  vk_percent  vkr_percent  pfe_kw  i0_percent  shift_degree tap_side  tap_neutral  tap_min  tap_max  tap_step_percent  tap_step_degree  tap_pos tap_changer_type  id_characteristic_table  tap_dependency_table  parallel   df  in_service
0  MV/LV Transformer 2     None       7       8    10.0      15.0       0.4        0.01         0.01    0.01        0.01           0.0     None          NaN      NaN      NaN               NaN              NaN      NaN              NaN                     <NA>                 False         1  1.0        True
1  Slack Transformer 0     None       9      10    40.0      70.0      15.0        0.01         0.01    0.01        0.01           0.0     None          NaN      NaN      NaN               NaN              NaN      NaN              NaN                     <NA>                 False         1  1.0        True
--------------------------------------------------

RES_BUS:
       vm_pu     va_degree      p_mw    q_mvar
0   0.998724 -1.074545e-01  0.001207 -0.000016
1   0.998009 -1.674850e-01  0.001207 -0.000003
2   0.996914 -2.164991e-01  0.001207  0.000000
3   0.997916 -1.435698e-01  0.001207  0.000000
4   0.999919 -6.684982e-03  0.059720 -0.000031
5   0.999883 -9.711623e-03  0.119439 -0.000003
6   0.999839 -1.166937e-02  0.089580  0.000000
7   0.999966 -2.793620e-03  0.000000  0.000000
8   0.999966 -2.793336e-03  0.000000  0.000000
9   1.000000  0.000000e+00 -0.273629 -0.005006
10  0.999999  4.305925e-07  0.000000  0.000000
--------------------------------------------------

RES_LINE:
   p_from_mw   q_from_mvar   p_to_mw     q_to_mvar         pl_mw       ql_mvar  i_from_ka   i_to_ka      i_ka  vm_from_pu  va_from_degree  vm_to_pu  va_to_degree  loading_percent
0   0.273619  1.006109e-03 -0.273609 -9.927325e-04  9.140576e-06  1.337645e-05   0.010532  0.010532  0.010532    0.999999    4.305925e-07  0.999966     -0.002794         3.097547
1   0.268763 -1.740942e-06 -0.268750  1.999358e-05  1.247264e-05  1.825264e-05   0.010345  0.010345  0.010345    0.999966   -2.793620e-03  0.999919     -0.006685         3.042655
2   0.004837 -5.407974e-06 -0.004831  1.422568e-05  6.025433e-06  8.817707e-06   0.006982  0.006982  0.006982    0.999966   -2.793336e-03  0.998724     -0.107454         2.053429
3  -0.209023  2.595174e-07  0.209030  1.078247e-05  7.545359e-06  1.104199e-05   0.008046  0.008046  0.008046    0.999883   -9.711623e-03  0.999919     -0.006685         2.366539
4  -0.089580  2.754465e-13  0.089583  3.060988e-06  3.925772e-06  3.060989e-06   0.003448  0.003448  0.003448    0.999839   -1.166937e-02  0.999883     -0.009712         1.499335
5  -0.002415  1.700603e-06  0.002416  8.299774e-07  1.729230e-06  2.530580e-06   0.003492  0.003492  0.003492    0.998009   -1.674850e-01  0.998724     -0.107454         1.027152
6  -0.001207  5.450216e-12  0.001208  7.612320e-07  9.763003e-07  7.612374e-07   0.001745  0.001745  0.001745    0.997916   -1.435698e-01  0.998724     -0.107454         0.758853
7  -0.001207  1.454641e-11  0.001208  1.033402e-06  1.325374e-06  1.033416e-06   0.001747  0.001747  0.001747    0.996914   -2.164991e-01  0.998009     -0.167485         0.759616
--------------------------------------------------

RES_TRAFO:
    p_hv_mw  q_hv_mvar   p_lv_mw  q_lv_mvar    pl_mw  ql_mvar   i_hv_ka   i_lv_ka  vm_hv_pu  va_hv_degree  vm_lv_pu  va_lv_degree  loading_percent
0  0.004847   0.000994 -0.004837   0.000005  0.00001    0.001  0.000190  0.006982  0.999966     -0.002794  0.999966 -2.793336e-03         0.049480
1  0.273629   0.005006 -0.273619  -0.001006  0.00001    0.004  0.002257  0.010532  1.000000      0.000000  0.999999  4.305925e-07         0.684186
--------------------------------------------------

RES_EXT_GRID:
       p_mw    q_mvar
0  0.273629  0.005006
--------------------------------------------------

RES_LOAD:
          p_mw    q_mvar
0     0.000000 -0.000000
1     0.000000 -0.000000
2     0.000000 -0.000000
3     0.000000 -0.000000
4     0.000000 -0.000000
5     0.000000 -0.000000
6     0.000000 -0.000000
7     0.000000 -0.000000
8     0.000000 -0.000000
9    -0.000000 -0.000000
10   -0.000000 -0.000000
11   -0.000000 -0.000000
12   -0.000000 -0.000000
13   -0.000000 -0.000000
14   -0.000000 -0.000000
15   -0.000000 -0.000000
16    0.000000 -0.000000
17    0.000000 -0.000000
18    0.000000 -0.000000
19    0.000000 -0.000000
20    0.000000 -0.000000
21    0.000000 -0.000000
22    0.000000 -0.000000
23    0.000000 -0.000000
24    0.000000 -0.000000
25    0.000000 -0.000000
26    0.000000 -0.000000
27    0.000000 -0.000000
28    0.000000 -0.000000
29    0.000000 -0.000000
30    0.000000 -0.000000
31    0.000000 -0.000000
32   -0.000000 -0.000000
33   -0.000000 -0.000000
34   -0.000000 -0.000000
35   -0.000000 -0.000000
36   -0.000000 -0.000000
37   -0.000000 -0.000000
38   -0.000000 -0.000000
39   -0.000000 -0.000000
40    0.000000 -0.000000
41    0.000000 -0.000000
42    0.000000 -0.000000
43    0.000000 -0.000000
44    0.000000 -0.000000
45    0.000000 -0.000000
46    0.000000 -0.000000
47    0.000000 -0.000000
48    0.000000 -0.000000
49    0.000000 -0.000000
50    0.000000 -0.000000
51    0.000000 -0.000000
52    0.000000 -0.000000
53    0.000000 -0.000000
54   -0.000000 -0.000000
55   -0.000000 -0.000000
56   -0.000000 -0.000000
57   -0.000000 -0.000000
58   -0.000000 -0.000000
59   -0.000000 -0.000000
60   -0.000000 -0.000000
61   -0.000000 -0.000000
62   -0.000000 -0.000000
63   -0.000000 -0.000000
64   -0.000000 -0.000000
65   -0.000000 -0.000000
66    0.000000 -0.000000
67    0.000000 -0.000000
68    0.000000 -0.000000
69    0.000000 -0.000000
70    0.000000 -0.000000
71    0.000000 -0.000000
72    0.000000 -0.000000
73    0.000000 -0.000000
74    0.000000 -0.000000
75    0.000000 -0.000000
76    0.000000 -0.000000
77   -0.000000 -0.000000
78   -0.000000 -0.000000
79   -0.000000 -0.000000
80   -0.000000 -0.000000
81   -0.000000 -0.000000
82   -0.000000 -0.000000
83   -0.000000 -0.000000
84   -0.000000 -0.000000
85   -0.000000 -0.000000
86   -0.000000 -0.000000
87   -0.000000 -0.000000
88   -0.000000 -0.000000
89    0.000000 -0.000000
90    0.000000 -0.000000
91    0.000000 -0.000000
92    0.000000 -0.000000
93    0.000000 -0.000000
94    0.000000 -0.000000
95    0.000000 -0.000000
96    0.000000 -0.000000
97    0.000000 -0.000000
98    0.000000 -0.000000
99    0.000000 -0.000000
100   0.000000 -0.000000
101  -0.000000 -0.000000
102  -0.000000 -0.000000
103  -0.000000 -0.000000
104  -0.000000 -0.000000
105  -0.000000 -0.000000
106  -0.000000 -0.000000
107  -0.000000 -0.000000
108  -0.000000 -0.000000
109  -0.000000 -0.000000
110  -0.000000 -0.000000
111  -0.000000 -0.000000
112  -0.000000 -0.000000
113   0.000000 -0.000000
114   0.000000 -0.000000
115   0.000000 -0.000000
116   0.000000 -0.000000
117   0.000000 -0.000000
118   0.000000 -0.000000
119   0.000000 -0.000000
120   0.000000 -0.000000
121   0.000000 -0.000000
122   0.000000 -0.000000
123   0.000000 -0.000000
124   0.000000 -0.000000
125   0.000000 -0.000000
126   0.000000 -0.000000
127   0.000000 -0.000000
128  -0.000000 -0.000000
129  -0.000000 -0.000000
130  -0.000000 -0.000000
131  -0.000000 -0.000000
132  -0.000000 -0.000000
133  -0.000000 -0.000000
134  -0.000000 -0.000000
135  -0.000000 -0.000000
136   0.000000 -0.000000
137   0.000000 -0.000000
138   0.000000 -0.000000
139   0.000000 -0.000000
140   0.000000 -0.000000
141   0.000000 -0.000000
142   0.000000 -0.000000
143   0.000000 -0.000000
144   0.000000 -0.000000
145   0.000000 -0.000000
146   0.000000 -0.000000
147   0.000000 -0.000000
148   0.000000 -0.000000
149   0.000000 -0.000000
150   0.000000 -0.000000
151   0.000000 -0.000000
152  -0.000000 -0.000000
153  -0.000000 -0.000000
154  -0.000000 -0.000000
155  -0.000000 -0.000000
156  -0.000000 -0.000000
157  -0.000000 -0.000000
158   0.000000 -0.000000
159   0.000000 -0.000000
160   0.000000 -0.000000
161   0.000000 -0.000000
162   0.000000 -0.000000
163   0.000000 -0.000000
164   0.000000 -0.000000
165   0.000000 -0.000000
166   0.000000 -0.000000
167   0.000000 -0.000000
168   0.000000 -0.000000
169   0.000000 -0.000000
170   0.000000 -0.000000
171   0.000000 -0.000000
172   0.000000 -0.000000
173   0.000000 -0.000000
174   0.000000 -0.000000
175   0.000000 -0.000000
176  -0.000000 -0.000000
177  -0.000000 -0.000000
178  -0.000000 -0.000000
179  -0.000000 -0.000000
180  -0.000000 -0.000000
181  -0.000000 -0.000000
182  -0.000000 -0.000000
183   0.000000 -0.000000
184   0.000000 -0.000000
185   0.000000 -0.000000
186   0.000000 -0.000000
187   0.000000 -0.000000
188   0.000000 -0.000000
189   0.000000 -0.000000
190   0.000000 -0.000000
191   0.001207 -0.000016
192   0.000000 -0.000000
193   0.000000 -0.000000
194   0.000000 -0.000000
195   0.000000 -0.000000
196   0.000000 -0.000000
197   0.000000 -0.000000
198   0.000000 -0.000000
199   0.000000 -0.000000
...

BUS_GEODATA:
       x     y
0   11.0  48.0
1   25.0  38.0
2   51.0  42.0
3    0.0  64.0
4   10.0  70.0
5   20.0  80.0
6   40.0  80.0
7   20.0  60.0
8   20.5  59.5
9   30.0  60.0
10  30.5  59.5
--------------------------------------------------
